data_genice
#
_cell_length_a                17.120843761276774
_cell_length_b                17.120843761276774
_cell_length_c                34.24168752255355
_cell_angle_alpha             90.0
_cell_angle_beta              90.0
_cell_angle_gamma             90.0

_symmetry_cell_setting        'orthorhombic'
_symmetry_space_group_name_H-M   'P 1 '

loop_
  _symmetry_equiv_pos_as_xyz
X,Y,Z

loop_
_atom_site_label
_atom_site_fract_x
_atom_site_fract_y
_atom_site_fract_z
_atom_site_type_symbol
    O0    0.3213    0.9325    0.0613     O
    H1    0.3087    0.9449    0.0348     H
    H2    0.2741    0.9113    0.0718     H
    O3    0.9355    0.6304    0.2158     O
    H4    0.9124    0.6089    0.2388     H
    H5    0.8946    0.6295    0.1967     H
    O6    0.9287    0.9325    0.0637     O
    H7    0.9759    0.9113    0.0532     H
    H8    0.9413    0.9449    0.0902     H
    O9    0.3726    0.6825    0.0893     O
   H10    0.3937    0.6613    0.1130     H
   H11    0.3196    0.6949    0.0956     H
   O12    0.3164    0.6239    0.2168     O
   H13    0.3560    0.6220    0.1970     H
   H14    0.3052    0.5703    0.2224     H
   O15    0.8213    0.4325    0.0613     O
   H16    0.8087    0.4449    0.0348     H
   H17    0.7741    0.4113    0.0718     H
   O18    0.8750    0.3750    0.4394     O
   H19    0.9063    0.4063    0.4223     H
   H20    0.8437    0.3437    0.4223     H
   O21    0.3164    0.6261    0.4082     O
   H22    0.3052    0.6797    0.4026     H
   H23    0.3560    0.6280    0.4280     H
   O24    0.4336    0.1239    0.4082     O
   H25    0.4448    0.0703    0.4026     H
   H26    0.3940    0.1220    0.4280     H
   O27    0.2205    0.2205    0.3584     O
   H28    0.1878    0.1878    0.3427     H
   H29    0.2073    0.2073    0.3847     H
   O30    0.6321    0.4302    0.4651     O
   H31    0.6062    0.4148    0.4887     H
   H32    0.6062    0.4773    0.4574     H
   O33    0.6226    0.4325    0.1607     O
   H34    0.5696    0.4449    0.1544     H
   H35    0.6437    0.4113    0.1370     H
   O36    0.1274    0.8213    0.4088     O
   H37    0.1063    0.7741    0.4194     H
   H38    0.1804    0.8087    0.4026     H
   O39    0.2795    0.7795    0.3916     O
   H40    0.3122    0.8122    0.4073     H
   H41    0.2927    0.7927    0.3653     H
   O42    0.4302    0.4302    0.0660     O
   H43    0.4148    0.4773    0.0531     H
   H44    0.4773    0.4148    0.0531     H
   O45    0.2195    0.0345    0.2673     O
   H46    0.2058    0.0436    0.2405     H
   H47    0.2058   -0.0189    0.2718     H
   O48    0.6179    0.8198    0.4651     O
   H49    0.6438    0.8352    0.4887     H
   H50    0.6438    0.7727    0.4574     H
   O51    0.1855    0.8804    0.2842     O
   H52    0.1624    0.8589    0.2612     H
   H53    0.1446    0.8795    0.3033     H
   O54    0.1855    0.0685    0.1902     O
   H55    0.1446    0.1065    0.1898     H
   H56    0.1624    0.0224    0.1795     H
   O57    0.4705    0.4705    0.1416     O
   H58    0.4573    0.4573    0.1153     H
   H59    0.4378    0.4378    0.1573     H
   O60    0.9315    0.1196    0.1572     O
   H61    0.8935    0.1205    0.1777     H
   H62    0.9776    0.1411    0.1688     H
   O63    0.8750    0.8712    0.1875     O
   H64    0.9063    0.9054    0.1719     H
   H65    0.8437    0.9054    0.2031     H
   O66    0.1304    0.4315    0.2178     O
   H67    0.1089    0.4776    0.2062     H
   H68    0.1295    0.3935    0.1973     H
   O69    0.1836    0.8739    0.0918     O
   H70    0.1440    0.8720    0.0720     H
   H71    0.1948    0.8203    0.0974     H
   O72    0.4355    0.9315    0.3152     O
   H73    0.4124    0.9776    0.3045     H
   H74    0.3946    0.8935    0.3148     H
   O75    0.1239    0.3164    0.4668     O
   H76    0.0703    0.3052    0.4724     H
   H77    0.1220    0.3560    0.4470     H
   O78    0.6855    0.0685    0.4402     O
   H79    0.6624    0.0224    0.4295     H
   H80    0.6446    0.1065    0.4398     H
   O81    0.8185    0.8145    0.0652     O
   H82    0.8565    0.8554    0.0648     H
   H83    0.7724    0.8376    0.0545     H
   O84    0.8774    0.0675    0.3393     O
   H85    0.8563    0.0887    0.3630     H
   H86    0.9304    0.0551    0.3456     H
   O87    0.9655    0.9655    0.1403     O
   H88    1.0189    0.9564    0.1471     H
   H89    0.9564    1.0189    0.1471     H
   O90    0.0664    0.6836    0.4381     O
   H91    0.0552    0.6948    0.4649     H
   H92    0.1060    0.6440    0.4390     H
   O93    0.7168    0.7205    0.3603     O
   H94    0.6854    0.6878    0.3439     H
   H95    0.7695    0.7073    0.3536     H
   O96    0.8696    0.1855    0.0908     O
   H97    0.8705    0.1446    0.0717     H
   H98    0.8911    0.1624    0.1138     H
   O99    0.5295    0.5332    0.3603     O
  H100    0.5622    0.5646    0.3439     H
  H101    0.5427    0.4805    0.3536     H
  O102    0.6787    0.8726    0.3412     O
  H103    0.6913    0.8196    0.3474     H
  H104    0.7259    0.8937    0.3306     H
  O105    0.0698    0.8821    0.3401     O
  H106    0.0227    0.8562    0.3324     H
  H107    0.0852    0.8562    0.3637     H
  O108    0.5698    0.3821    0.3401     O
  H109    0.5227    0.3562    0.3324     H
  H110    0.5852    0.3562    0.3637     H
  O111    0.3164    0.3164    0.0631     O
  H112    0.3560    0.3560    0.0640     H
  H113    0.3052    0.3052    0.0899     H
  O114    0.3198    0.1321    0.1599     O
  H115    0.3352    0.1062    0.1363     H
  H116    0.2727    0.1062    0.1676     H
  O117    0.1179    0.4302    0.4099     O
  H118    0.1438    0.4773    0.4176     H
  H119    0.1438    0.4148    0.3863     H
  O120    0.8679    0.0698    0.0349     O
  H121    0.8938    0.0852    0.0113     H
  H122    0.8938    0.0227    0.0426     H
  O123    0.0713    0.0675    0.4363     O
  H124    0.0241    0.0887    0.4468     H
  H125    0.0587    0.0551    0.4098     H
  O126    0.8804    0.1855    0.2842     O
  H127    0.8589    0.1624    0.2612     H
  H128    0.8795    0.1446    0.3033     H
  O129    0.2795    0.2832    0.1397     O
  H130    0.2927    0.2305    0.1464     H
  H131    0.3122    0.3146    0.1561     H
  O132    0.3696    0.5645    0.0342     O
  H133    0.3911    0.5876    0.0112     H
  H134    0.3705    0.6054    0.0533     H
  O135    0.1288    0.6250    0.0625     O
  H136    0.0946    0.6563    0.0469     H
  H137    0.0946    0.5937    0.0781     H
  O138    0.8696    0.6855    0.3408     O
  H139    0.8911    0.6624    0.3638     H
  H140    0.8705    0.6446    0.3217     H
  O141    0.9655    0.4655    0.3903     O
  H142    0.9564    0.5189    0.3971     H
  H143    1.0189    0.4564    0.3971     H
  O144    0.6787    0.6825    0.4363     O
  H145    0.7259    0.6613    0.4468     H
  H146    0.6913    0.6949    0.4098     H
  O147    0.6855    0.3804    0.2842     O
  H148    0.6446    0.3795    0.3033     H
  H149    0.6624    0.3589    0.2612     H
  O150    0.4668    0.7795    0.4853     O
  H151    0.4354    0.8122    0.4689     H
  H152    0.5195    0.7927    0.4786     H
  O153    0.0675    0.1787    0.1887     O
  H154    0.0551    0.1913    0.2152     H
  H155    0.0887    0.2259    0.1782     H
  O156    0.3198    0.4302    0.3090     O
  H157    0.2727    0.4148    0.3219     H
  H158    0.3352    0.4773    0.3219     H
  O159    0.4287    0.6274    0.4662     O
  H160    0.4759    0.6063    0.4556     H
  H161    0.4413    0.6804    0.4724     H
  O162    0.5332    0.2205    0.0147     O
  H163    0.4805    0.2073    0.0214     H
  H164    0.5646    0.1878    0.0311     H
  O165    0.6304    0.9315    0.2178     O
  H166    0.6089    0.9776    0.2062     H
  H167    0.6295    0.8935    0.1973     H
  O168    0.4355    0.8185    0.0598     O
  H169    0.3946    0.8565    0.0602     H
  H170    0.4124    0.7724    0.0705     H
  O171    0.7155    0.2155    0.1097     O
  H172    0.7689    0.2064    0.1029     H
  H173    0.7064    0.2689    0.1029     H
  O174    0.5664    0.3739    0.0332     O
  H175    0.5552    0.3203    0.0276     H
  H176    0.6060    0.3720    0.0530     H
  O177    0.1815    0.6855    0.1848     O
  H178    0.2276    0.6624    0.1955     H
  H179    0.1435    0.6446    0.1852     H
  O180    0.6825    0.1787    0.1863     O
  H181    0.6613    0.2259    0.1968     H
  H182    0.6949    0.1913    0.1598     H
  O183    0.0685    0.3804    0.0928     O
  H184    0.1065    0.3795    0.0723     H
  H185    0.0224    0.3589    0.0812     H
  O186    0.9355    0.3185    0.0598     O
  H187    0.9124    0.2724    0.0705     H
  H188    0.8946    0.3565    0.0602     H
  O189    0.0713    0.5675    0.1863     O
  H190    0.0587    0.5551    0.1598     H
  H191    0.0241    0.5887    0.1968     H
  O192    0.9705    0.2795    0.4834     O
  H193    0.9573    0.2927    0.5097     H
  H194    0.9378    0.3122    0.4677     H
  O195    0.5295    0.0295    0.1084     O
  H196    0.5622    0.0622    0.0927     H
  H197    0.5427    0.0427    0.1347     H
  O198    0.8175    0.6274    0.1607     O
  H199    0.8387    0.6063    0.1370     H
  H200    0.8051    0.6804    0.1544     H
  O201    0.3739    0.0664    0.2832     O
  H202    0.3203    0.0552    0.2776     H
  H203    0.3720    0.1060    0.3030     H
  O204    0.1274    0.3175    0.1607     O
  H205    0.1804    0.3051    0.1544     H
  H206    0.1063    0.3387    0.1370     H
  O207    0.8726    0.5713    0.2838     O
  H208    0.8196    0.5587    0.2776     H
  H209    0.8937    0.5241    0.2944     H
  O210    0.9336    0.1261    0.4668     O
  H211    0.8940    0.1280    0.4470     H
  H212    0.9448    0.1797    0.4724     H
  O213    0.3750    0.3750    0.1856     O
  H214    0.3437    0.4063    0.2027     H
  H215    0.4063    0.3437    0.2027     H
  O216    0.2845    0.9695    0.4827     O
  H217    0.2311    0.9558    0.4782     H
  H218    0.2936    0.9558    0.5095     H
  O219    0.1836    0.3739    0.3418     O
  H220    0.1948    0.3203    0.3474     H
  H221    0.1440    0.3720    0.3220     H
  O222    0.8145    0.9315    0.3098     O
  H223    0.8554    0.8935    0.3102     H
  H224    0.8376    0.9776    0.3205     H
  O225    0.3750    0.8712    0.4375     O
  H226    0.4063    0.9054    0.4219     H
  H227    0.3437    0.9054    0.4531     H
  O228    0.8175    0.6226    0.4643     O
  H229    0.8387    0.6437    0.4880     H
  H230    0.8051    0.5696    0.4706     H
  O231    0.6212    0.1250    0.0625     O
  H232    0.6554    0.1563    0.0781     H
  H233    0.6554    0.0937    0.0469     H
  O234    0.6250    0.6250    0.3144     O
  H235    0.6563    0.5937    0.2973     H
  H236    0.5937    0.6563    0.2973     H
  O237    0.1787    0.5675    0.4387     O
  H238    0.1913    0.5551    0.4652     H
  H239    0.2259    0.5887    0.4282     H
  O240    0.5645    0.6815    0.1902     O
  H241    0.5876    0.7276    0.1795     H
  H242    0.6054    0.6435    0.1898     H
  O243    0.7845    0.9695    0.2327     O
  H244    0.7936    0.9558    0.2595     H
  H245    0.7311    0.9558    0.2282     H
  O246    0.1196    0.9355    0.1592     O
  H247    0.1411    0.9124    0.1362     H
  H248    0.1205    0.8946    0.1783     H
  O249    0.1855    0.1815    0.4348     O
  H250    0.1446    0.1435    0.4352     H
  H251    0.1624    0.2276    0.4455     H
  O252    0.3774    0.0713    0.0912     O
  H253    0.3563    0.0241    0.0806     H
  H254    0.4304    0.0587    0.0974     H
  O255    0.8821    0.6802    0.0349     O
  H256    0.8562    0.7273    0.0426     H
  H257    0.8562    0.6648    0.0113     H
  O258    0.7832    0.4705    0.4853     O
  H259    0.7305    0.4573    0.4786     H
  H260    0.8146    0.4378    0.4689     H
  O261    0.7195    0.5345    0.2673     O
  H262    0.7058    0.5436    0.2405     H
  H263    0.7058    0.4811    0.2718     H
  O264    0.9315    0.6196    0.4072     O
  H265    0.9776    0.6411    0.4188     H
  H266    0.8935    0.6205    0.4277     H
  O267    0.0698    0.3679    0.2849     O
  H268    0.0852    0.3938    0.2613     H
  H269    0.0227    0.3938    0.2926     H
  O270    0.2205    0.7205    0.1084     O
  H271    0.2073    0.7073    0.1347     H
  H272    0.1878    0.6878    0.0927     H
  O273    0.6855    0.8804    0.0342     O
  H274    0.6624    0.8589    0.0112     H
  H275    0.6446    0.8795    0.0533     H
  O276    0.8213    0.1226    0.2162     O
  H277    0.7741    0.1437    0.2056     H
  H278    0.8087    0.0696    0.2224     H
  O279    0.9705    0.7832    0.2353     O
  H280    0.9378    0.8146    0.2189     H
  H281    0.9573    0.7305    0.2286     H
  O282    0.6304    0.3185    0.4072     O
  H283    0.6089    0.2724    0.4188     H
  H284    0.6295    0.3565    0.4277     H
  O285    0.4355    0.3185    0.3098     O
  H286    0.3946    0.3565    0.3102     H
  H287    0.4124    0.2724    0.3205     H
  O288    0.3213    0.1226    0.4662     O
  H289    0.3087    0.0696    0.4724     H
  H290    0.2741    0.1437    0.4556     H
  O291    0.4695    0.2845    0.2327     O
  H292    0.4558    0.2311    0.2282     H
  H293    0.4558    0.2936    0.2595     H
  O294    0.1304    0.9315    0.4678     O
  H295    0.1295    0.8935    0.4473     H
  H296    0.1089    0.9776    0.4562     H
  O297    0.0345    0.7195    0.0173     O
  H298   -0.0189    0.7058    0.0218     H
  H299    0.0436    0.7058   -0.0095     H
  O300    0.0675    0.8726    0.0357     O
  H301    0.0887    0.8937    0.0120     H
  H302    0.0551    0.8196    0.0294     H
  O303    0.4655    0.9695    0.3923     O
  H304    0.5189    0.9558    0.3968     H
  H305    0.4564    0.9558    0.3655     H
  O306    0.0295    0.0332    0.3603     O
  H307    0.0622    0.0646    0.3439     H
  H308    0.0427   -0.0195    0.3536     H
  O309    0.9336    0.4336    0.3131     O
  H310    0.9448    0.4448    0.3399     H
  H311    0.8940    0.3940    0.3140     H
  O312    0.4355    0.1304    0.2158     O
  H313    0.3946    0.1295    0.1967     H
  H314    0.4124    0.1089    0.2388     H
  O315    0.9325    0.8213    0.3113     O
  H316    0.9113    0.7741    0.3218     H
  H317    0.9449    0.8087    0.2848     H
  O318    0.2845    0.4695    0.2327     O
  H319    0.2936    0.4558    0.2595     H
  H320    0.2311    0.4558    0.2282     H
  O321    0.6196    0.9355    0.4092     O
  H322    0.6411    0.9124    0.3862     H
  H323    0.6205    0.8946    0.4283     H
  O324    0.3726    0.1825    0.3393     O
  H325    0.3937    0.1613    0.3630     H
  H326    0.3196    0.1949    0.3456     H
  O327    0.5345    0.7195    0.2673     O
  H328    0.4811    0.7058    0.2718     H
  H329    0.5436    0.7058    0.2405     H
  O330    0.3774    0.5675    0.3393     O
  H331    0.4304    0.5551    0.3456     H
  H332    0.3563    0.5887    0.3630     H
  O333    0.3804    0.1815    0.0322     O
  H334    0.3589    0.2276    0.0438     H
  H335    0.3795    0.1435    0.0527     H
  O336    0.8213    0.1274    0.4088     O
  H337    0.8087    0.1804    0.4026     H
  H338    0.7741    0.1063    0.4194     H
  O339    0.7155    0.0345    0.0153     O
  H340    0.7689    0.0436    0.0221     H
  H341    0.7064   -0.0189    0.0221     H
  O342    0.2168    0.5295    0.0147     O
  H343    0.2695    0.5427    0.0214     H
  H344    0.1854    0.5622    0.0311     H
  O345    0.3804    0.6855    0.2842     O
  H346    0.3589    0.6624    0.2612     H
  H347    0.3795    0.6446    0.3033     H
  O348    0.5713    0.1825    0.4387     O
  H349    0.5241    0.1613    0.4282     H
  H350    0.5587    0.1949    0.4652     H
  O351    0.0345    0.2155    0.2653     O
  H352   -0.0189    0.2064    0.2721     H
  H353    0.0436    0.2689    0.2721     H
  O354    0.7795    0.7795    0.1416     O
  H355    0.8122    0.8122    0.1573     H
  H356    0.7927    0.7927    0.1153     H
  O357    0.5685    0.0645    0.1848     O
  H358    0.5224    0.0876    0.1955     H
  H359    0.6065    0.1054    0.1852     H
  O360    0.4287    0.6226    0.1588     O
  H361    0.4413    0.5696    0.1526     H
  H362    0.4759    0.6437    0.1694     H
  O363    0.5713    0.8774    0.0912     O
  H364    0.5241    0.8563    0.0806     H
  H365    0.5587    0.9304    0.0974     H
  O366    0.6274    0.8175    0.1607     O
  H367    0.6063    0.8387    0.1370     H
  H368    0.6804    0.8051    0.1544     H
  O369    0.5664    0.5664    0.4369     O
  H370    0.6060    0.6060    0.4360     H
  H371    0.5552    0.5552    0.4101     H
  O372    0.8804    0.5685    0.0928     O
  H373    0.8795    0.6065    0.0723     H
  H374    0.8589    0.5224    0.0812     H
  O375    0.0345    0.5345    0.1097     O
  H376    0.0436    0.4811    0.1029     H
  H377   -0.0189    0.5436    0.1029     H
  O378    0.8198    0.3198    0.3160     O
  H379    0.8352    0.2727    0.3031     H
  H380    0.7727    0.3352    0.3031     H
  O381    0.6239    0.3164    0.2168     O
  H382    0.5703    0.3052    0.2224     H
  H383    0.6220    0.3560    0.1970     H
  O384    0.1250    0.1250    0.3144     O
  H385    0.0937    0.1563    0.2973     H
  H386    0.1563    0.0937    0.2973     H
  O387    0.1787    0.3774    0.0338     O
  H388    0.2259    0.3563    0.0444     H
  H389    0.1913    0.4304    0.0276     H
  O390    0.3198    0.8198    0.3160     O
  H391    0.3352    0.7727    0.3031     H
  H392    0.2727    0.8352    0.3031     H
  O393    0.1226    0.8213    0.2162     O
  H394    0.1437    0.7741    0.2056     H
  H395    0.0696    0.8087    0.2224     H
  O396    0.7845    0.2805    0.3923     O
  H397    0.7311    0.2942    0.3968     H
  H398    0.7936    0.2942    0.3655     H
  O399    0.6802    0.5698    0.1910     O
  H400    0.7273    0.5852    0.1781     H
  H401    0.6648    0.5227    0.1781     H
  O402    0.5675    0.8726    0.7857     O
  H403    0.5887    0.8937    0.7620     H
  H404    0.5551    0.8196    0.7794     H
  O405    0.6787    0.3726    0.5912     O
  H406    0.6913    0.3196    0.5974     H
  H407    0.7259    0.3937    0.5806     H
  O408    0.3145    0.9315    0.5598     O
  H409    0.3554    0.8935    0.5602     H
  H410    0.3376    0.9776    0.5705     H
  O411    0.9336    0.6261    0.7168     O
  H412    0.9448    0.6797    0.7224     H
  H413    0.8940    0.6280    0.6970     H
  O414    0.9287    0.9325    0.5637     O
  H415    0.9413    0.9449    0.5902     H
  H416    0.9759    0.9113    0.5532     H
  O417    0.3696    0.6815    0.5928     O
  H418    0.3705    0.6435    0.5723     H
  H419    0.3911    0.7276    0.5812     H
  O420    0.3175    0.6226    0.7143     O
  H421    0.3051    0.5696    0.7206     H
  H422    0.3387    0.6437    0.7380     H
  O423    0.8164    0.4336    0.5619     O
  H424    0.8052    0.4448    0.5351     H
  H425    0.8560    0.3940    0.5610     H
  O426    0.8750    0.3750    0.9356     O
  H427    0.8437    0.4063    0.9527     H
  H428    0.9063    0.3437    0.9527     H
  O429    0.3164    0.6261    0.9082     O
  H430    0.3560    0.6280    0.9280     H
  H431    0.3052    0.6797    0.9026     H
  O432    0.4355    0.1196    0.9092     O
  H433    0.4124    0.1411    0.8862     H
  H434    0.3946    0.1205    0.9283     H
  O435    0.2205    0.2168    0.8603     O
  H436    0.2073    0.2695    0.8536     H
  H437    0.1878    0.1854    0.8439     H
  O438    0.6304    0.4355    0.9658     O
  H439    0.6295    0.3946    0.9467     H
  H440    0.6089    0.4124    0.9888     H
  O441    0.6226    0.4325    0.6607     O
  H442    0.5696    0.4449    0.6544     H
  H443    0.6437    0.4113    0.6370     H
  O444    0.1304    0.8145    0.9092     O
  H445    0.1295    0.8554    0.9283     H
  H446    0.1089    0.8376    0.8862     H
  O447    0.2845    0.7805    0.8923     O
  H448    0.2936    0.7942    0.8655     H
  H449    0.2311    0.7942    0.8968     H
  O450    0.4315    0.4355    0.5652     O
  H451    0.4776    0.4124    0.5545     H
  H452    0.3935    0.3946    0.5648     H
  O453    0.2155    0.0345    0.7653     O
  H454    0.2689    0.0436    0.7721     H
  H455    0.2064   -0.0189    0.7721     H
  O456    0.6239    0.8164    0.9668     O
  H457    0.5703    0.8052    0.9724     H
  H458    0.6220    0.8560    0.9470     H
  O459    0.1815    0.8804    0.7822     O
  H460    0.2276    0.8589    0.7938     H
  H461    0.1435    0.8795    0.8027     H
  O462    0.1836    0.0664    0.6881     O
  H463    0.1948    0.0552    0.7149     H
  H464    0.1440    0.1060    0.6890     H
  O465    0.4695    0.4655    0.6423     O
  H466    0.4558    0.5189    0.6468     H
  H467    0.4558    0.4564    0.6155     H
  O468    0.9287    0.1226    0.6588     O
  H469    0.9759    0.1437    0.6694     H
  H470    0.9413    0.0696    0.6526     H
  O471    0.8750    0.8788    0.6875     O
  H472    0.8437    0.8446    0.6719     H
  H473    0.9063    0.8446    0.7031     H
  O474    0.1321    0.4302    0.7151     O
  H475    0.1062    0.4773    0.7074     H
  H476    0.1062    0.4148    0.7387     H
  O477    0.1802    0.8679    0.5901     O
  H478    0.2273    0.8938    0.5824     H
  H479    0.1648    0.8938    0.6137     H
  O480    0.4287    0.9325    0.8137     O
  H481    0.4413    0.9449    0.8402     H
  H482    0.4759    0.9113    0.8032     H
  O483    0.1226    0.3175    0.9643     O
  H484    0.0696    0.3051    0.9706     H
  H485    0.1437    0.3387    0.9880     H
  O486    0.6836    0.0664    0.9381     O
  H487    0.6948    0.0552    0.9649     H
  H488    0.6440    0.1060    0.9390     H
  O489    0.8185    0.8145    0.5652     O
  H490    0.8565    0.8554    0.5648     H
  H491    0.7724    0.8376    0.5545     H
  O492    0.8821    0.0698    0.8401     O
  H493    0.8562    0.0852    0.8637     H
  H494    0.8562    0.0227    0.8324     H
  O495    0.9668    0.9705    0.6397     O
  H496    0.9354    0.9378    0.6561     H
  H497    1.0195    0.9573    0.6464     H
  O498    0.0645    0.6815    0.9402     O
  H499    0.0876    0.7276    0.9295     H
  H500    0.1054    0.6435    0.9398     H
  O501    0.7205    0.7205    0.8584     O
  H502    0.6878    0.6878    0.8427     H
  H503    0.7073    0.7073    0.8847     H
  O504    0.8696    0.1855    0.5908     O
  H505    0.8705    0.1446    0.5717     H
  H506    0.8911    0.1624    0.6138     H
  O507    0.5345    0.5345    0.8597     O
  H508    0.5436    0.4811    0.8529     H
  H509    0.4811    0.5436    0.8529     H
  O510    0.6836    0.8739    0.8418     O
  H511    0.6440    0.8720    0.8220     H
  H512    0.6948    0.8203    0.8474     H
  O513    0.0713    0.8774    0.8412     O
  H514    0.0241    0.8563    0.8306     H
  H515    0.0587    0.9304    0.8474     H
  O516    0.5685    0.3804    0.8428     O
  H517    0.5224    0.3589    0.8312     H
  H518    0.6065    0.3795    0.8223     H
  O519    0.3213    0.3175    0.5637     O
  H520    0.3087    0.3051    0.5902     H
  H521    0.2741    0.3387    0.5532     H
  O522    0.3185    0.1304    0.6572     O
  H523    0.3565    0.1295    0.6777     H
  H524    0.2724    0.1089    0.6688     H
  O525    0.1196    0.4315    0.9072     O
  H526    0.1205    0.3935    0.9277     H
  H527    0.1411    0.4776    0.9188     H
  O528    0.8679    0.0698    0.5349     O
  H529    0.8938    0.0852    0.5113     H
  H530    0.8938    0.0227    0.5426     H
  O531    0.0664    0.0664    0.9369     O
  H532    0.1060    0.1060    0.9360     H
  H533    0.0552    0.0552    0.9101     H
  O534    0.8804    0.1815    0.7822     O
  H535    0.8589    0.2276    0.7938     H
  H536    0.8795    0.1435    0.8027     H
  O537    0.2845    0.2845    0.6403     O
  H538    0.2936    0.2311    0.6471     H
  H539    0.2311    0.2936    0.6471     H
  O540    0.3679    0.5698    0.5349     O
  H541    0.3938    0.5852    0.5113     H
  H542    0.3938    0.5227    0.5426     H
  O543    0.1250    0.6250    0.5606     O
  H544    0.1563    0.6563    0.5777     H
  H545    0.0937    0.5937    0.5777     H
  O546    0.8726    0.6825    0.8393     O
  H547    0.8196    0.6949    0.8456     H
  H548    0.8937    0.6613    0.8630     H
  O549    0.9668    0.4705    0.8897     O
  H550    0.9354    0.4378    0.9061     H
  H551    1.0195    0.4573    0.8964     H
  O552    0.6855    0.6815    0.9348     O
  H553    0.6624    0.7276    0.9455     H
  H554    0.6446    0.6435    0.9352     H
  O555    0.6787    0.3774    0.7838     O
  H556    0.6913    0.4304    0.7776     H
  H557    0.7259    0.3563    0.7944     H
  O558    0.4705    0.7795    0.9834     O
  H559    0.4378    0.8122    0.9677     H
  H560    0.4573    0.7927    1.0097     H
  O561    0.0675    0.1787    0.6887     O
  H562    0.0887    0.2259    0.6782     H
  H563    0.0551    0.1913    0.7152     H
  O564    0.3164    0.4336    0.8119     O
  H565    0.3560    0.3940    0.8110     H
  H566    0.3052    0.4448    0.7851     H
  O567    0.4287    0.6274    0.9662     O
  H568    0.4413    0.6804    0.9724     H
  H569    0.4759    0.6063    0.9556     H
  O570    0.5332    0.2205    0.5147     O
  H571    0.5646    0.1878    0.5311     H
  H572    0.4805    0.2073    0.5214     H
  O573    0.6274    0.9287    0.7162     O
  H574    0.6804    0.9413    0.7224     H
  H575    0.6063    0.9759    0.7056     H
  O576    0.4287    0.8175    0.5613     O
  H577    0.4413    0.8051    0.5348     H
  H578    0.4759    0.8387    0.5718     H
  O579    0.7155    0.2195    0.6077     O
  H580    0.7689    0.2058    0.6032     H
  H581    0.7064    0.2058    0.6345     H
  O582    0.5664    0.3739    0.5332     O
  H583    0.6060    0.3720    0.5530     H
  H584    0.5552    0.3203    0.5276     H
  O585    0.1787    0.6825    0.6863     O
  H586    0.2259    0.6613    0.6968     H
  H587    0.1913    0.6949    0.6598     H
  O588    0.6802    0.1802    0.6840     O
  H589    0.6648    0.2273    0.6969     H
  H590    0.7273    0.1648    0.6969     H
  O591    0.0664    0.3761    0.5918     O
  H592    0.1060    0.3780    0.5720     H
  H593    0.0552    0.4297    0.5974     H
  O594    0.9302    0.3198    0.5590     O
  H595    0.9148    0.2727    0.5719     H
  H596    0.9773    0.3352    0.5719     H
  O597    0.0685    0.5645    0.6848     O
  H598    0.1065    0.6054    0.6852     H
  H599    0.0224    0.5876    0.6955     H
  O600    0.9695    0.2845    0.9827     O
  H601    0.9558    0.2311    0.9782     H
  H602    0.9558    0.2936    1.0095     H
  O603    0.5332    0.0295    0.6103     O
  H604    0.5646    0.0622    0.5939     H
  H605    0.4805    0.0427    0.6036     H
  O606    0.8175    0.6274    0.6607     O
  H607    0.8387    0.6063    0.6370     H
  H608    0.8051    0.6804    0.6544     H
  O609    0.3679    0.0698    0.7849     O
  H610    0.3938    0.0852    0.7613     H
  H611    0.3938    0.0227    0.7926     H
  O612    0.1304    0.3145    0.6592     O
  H613    0.1089    0.3376    0.6362     H
  H614    0.1295    0.3554    0.6783     H
  O615    0.8696    0.5645    0.7842     O
  H616    0.8911    0.5876    0.7612     H
  H617    0.8705    0.6054    0.8033     H
  O618    0.9315    0.1304    0.9678     O
  H619    0.9776    0.1089    0.9562     H
  H620    0.8935    0.1295    0.9473     H
  O621    0.3750    0.3750    0.6894     O
  H622    0.3437    0.3437    0.6723     H
  H623    0.4063    0.4063    0.6723     H
  O624    0.2795    0.9668    0.9853     O
  H625    0.2927    1.0195    0.9786     H
  H626    0.3122    0.9354    0.9689     H
  O627    0.1802    0.3679    0.8401     O
  H628    0.2273    0.3938    0.8324     H
  H629    0.1648    0.3938    0.8637     H
  O630    0.8213    0.9325    0.8113     O
  H631    0.7741    0.9113    0.8218     H
  H632    0.8087    0.9449    0.7848     H
  O633    0.3750    0.8750    0.9394     O
  H634    0.4063    0.9063    0.9223     H
  H635    0.3437    0.8437    0.9223     H
  O636    0.8185    0.6196    0.9678     O
  H637    0.7724    0.6411    0.9562     H
  H638    0.8565    0.6205    0.9473     H
  O639    0.6212    0.1250    0.5625     O
  H640    0.6554    0.1563    0.5781     H
  H641    0.6554    0.0937    0.5469     H
  O642    0.6250    0.6288    0.8125     O
  H643    0.6563    0.5946    0.7969     H
  H644    0.5937    0.5946    0.8281     H
  O645    0.1787    0.5675    0.9387     O
  H646    0.2259    0.5887    0.9282     H
  H647    0.1913    0.5551    0.9652     H
  O648    0.5685    0.6855    0.6902     O
  H649    0.5224    0.6624    0.6795     H
  H650    0.6065    0.6446    0.6898     H
  O651    0.7795    0.9668    0.7353     O
  H652    0.7927    1.0195    0.7286     H
  H653    0.8122    0.9354    0.7189     H
  O654    0.1196    0.9315    0.6572     O
  H655    0.1205    0.8935    0.6777     H
  H656    0.1411    0.9776    0.6688     H
  O657    0.1825    0.1787    0.9363     O
  H658    0.1949    0.1913    0.9098     H
  H659    0.1613    0.2259    0.9468     H
  O660    0.3804    0.0645    0.5908     O
  H661    0.3795    0.1054    0.5717     H
  H662    0.3589    0.0876    0.6138     H
  O663    0.8774    0.6787    0.5338     O
  H664    0.8563    0.7259    0.5444     H
  H665    0.9304    0.6913    0.5276     H
  O666    0.7845    0.4655    0.9847     O
  H667    0.7936    0.5189    0.9779     H
  H668    0.7311    0.4564    0.9779     H
  O669    0.7155    0.5305    0.7673     O
  H670    0.7064    0.5442    0.7405     H
  H671    0.7689    0.5442    0.7718     H
  O672    0.9287    0.6226    0.9088     O
  H673    0.9413    0.5696    0.9026     H
  H674    0.9759    0.6437    0.9194     H
  O675    0.0685    0.3696    0.7822     O
  H676    0.1065    0.3705    0.8027     H
  H677    0.0224    0.3911    0.7938     H
  O678    0.2155    0.7155    0.6097     O
  H679    0.2689    0.7064    0.6029     H
  H680    0.2064    0.7689    0.6029     H
  O681    0.6836    0.8761    0.5332     O
  H682    0.6948    0.9297    0.5276     H
  H683    0.6440    0.8780    0.5530     H
  O684    0.8145    0.1196    0.7158     O
  H685    0.8554    0.1205    0.6967     H
  H686    0.8376    0.1411    0.7388     H
  O687    0.9655    0.7805    0.7327     O
  H688    1.0189    0.7942    0.7282     H
  H689    0.9564    0.7942    0.7595     H
  O690    0.6321    0.3198    0.9099     O
  H691    0.6062    0.2727    0.9176     H
  H692    0.6062    0.3352    0.8863     H
  O693    0.4325    0.3213    0.8113     O
  H694    0.4113    0.2741    0.8218     H
  H695    0.4449    0.3087    0.7848     H
  O696    0.3198    0.1179    0.9651     O
  H697    0.3352    0.1438    0.9887     H
  H698    0.2727    0.1438    0.9574     H
  O699    0.4668    0.2795    0.7353     O
  H700    0.5195    0.2927    0.7286     H
  H701    0.4354    0.3122    0.7189     H
  O702    0.1274    0.9287    0.9662     O
  H703    0.1804    0.9413    0.9724     H
  H704    0.1063    0.9759    0.9556     H
  O705    0.0295    0.7168    0.5147     O
  H706    0.0427    0.7695    0.5214     H
  H707    0.0622    0.6854    0.5311     H
  O708    0.0645    0.8696    0.5342     O
  H709    0.1054    0.8705    0.5533     H
  H710    0.0876    0.8911    0.5112     H
  O711    0.4655    0.9655    0.8903     O
  H712    0.4564    1.0189    0.8971     H
  H713    0.5189    0.9564    0.8971     H
  O714    0.0332    0.0295    0.8603     O
  H715    0.0646    0.0622    0.8439     H
  H716   -0.0195    0.0427    0.8536     H
  O717    0.9325    0.4287    0.8137     O
  H718    0.9113    0.4759    0.8032     H
  H719    0.9449    0.4413    0.8402     H
  O720    0.4287    0.1274    0.7162     O
  H721    0.4413    0.1804    0.7224     H
  H722    0.4759    0.1063    0.7056     H
  O723    0.9355    0.8185    0.8098     O
  H724    0.9124    0.7724    0.8205     H
  H725    0.8946    0.8565    0.8102     H
  O726    0.2832    0.4705    0.7353     O
  H727    0.3146    0.4378    0.7189     H
  H728    0.2305    0.4573    0.7286     H
  O729    0.6179    0.9302    0.9099     O
  H730    0.6438    0.9773    0.9176     H
  H731    0.6438    0.9148    0.8863     H
  O732    0.3739    0.1836    0.8418     O
  H733    0.3720    0.1440    0.8220     H
  H734    0.3203    0.1948    0.8474     H
  O735    0.5295    0.7205    0.7666     O
  H736    0.5622    0.6878    0.7823     H
  H737    0.5427    0.7073    0.7403     H
  O738    0.3821    0.5698    0.8401     O
  H739    0.3562    0.5227    0.8324     H
  H740    0.3562    0.5852    0.8637     H
  O741    0.3821    0.1802    0.5349     O
  H742    0.3562    0.1648    0.5113     H
  H743    0.3562    0.2273    0.5426     H
  O744    0.8213    0.1274    0.9088     O
  H745    0.8087    0.1804    0.9026     H
  H746    0.7741    0.1063    0.9194     H
  O747    0.7155    0.0305    0.5173     O
  H748    0.7064    0.0442    0.4905     H
  H749    0.7689    0.0442    0.5218     H
  O750    0.2168    0.5295    0.5147     O
  H751    0.1854    0.5622    0.5311     H
  H752    0.2695    0.5427    0.5214     H
  O753    0.3761    0.6836    0.7832     O
  H754    0.4297    0.6948    0.7776     H
  H755    0.3780    0.6440    0.8030     H
  O756    0.5713    0.1825    0.9387     O
  H757    0.5241    0.1613    0.9282     H
  H758    0.5587    0.1949    0.9652     H
  O759    0.0345    0.2155    0.7653     O
  H760   -0.0189    0.2064    0.7721     H
  H761    0.0436    0.2689    0.7721     H
  O762    0.7845    0.7805    0.6423     O
  H763    0.7311    0.7942    0.6468     H
  H764    0.7936    0.7942    0.6155     H
  O765    0.5664    0.0664    0.6869     O
  H766    0.5552    0.0552    0.6601     H
  H767    0.6060    0.1060    0.6860     H
  O768    0.4355    0.6196    0.6592     O
  H769    0.3946    0.6205    0.6783     H
  H770    0.4124    0.6411    0.6362     H
  O771    0.5675    0.8774    0.5893     O
  H772    0.5551    0.9304    0.5956     H
  H773    0.5887    0.8563    0.6130     H
  O774    0.6304    0.8185    0.6572     O
  H775    0.6089    0.7724    0.6688     H
  H776    0.6295    0.8565    0.6777     H
  O777    0.5675    0.5713    0.9363     O
  H778    0.5551    0.5587    0.9098     H
  H779    0.5887    0.5241    0.9468     H
  O780    0.8804    0.5685    0.5928     O
  H781    0.8795    0.6065    0.5723     H
  H782    0.8589    0.5224    0.5812     H
  O783    0.0345    0.5305    0.6077     O
  H784    0.0436    0.5442    0.6345     H
  H785   -0.0189    0.5442    0.6032     H
  O786    0.8164    0.3164    0.8131     O
  H787    0.8052    0.3052    0.8399     H
  H788    0.8560    0.3560    0.8140     H
  O789    0.6196    0.3145    0.7158     O
  H790    0.6205    0.3554    0.6967     H
  H791    0.6411    0.3376    0.7388     H
  O792    0.1250    0.1250    0.8144     O
  H793    0.1563    0.0937    0.7973     H
  H794    0.0937    0.1563    0.7973     H
  O795    0.1825    0.3774    0.5357     O
  H796    0.1613    0.3563    0.5120     H
  H797    0.1949    0.4304    0.5294     H
  O798    0.3145    0.8185    0.8152     O
  H799    0.3554    0.8565    0.8148     H
  H800    0.3376    0.7724    0.8045     H
  O801    0.1179    0.8198    0.7151     O
  H802    0.1438    0.8352    0.7387     H
  H803    0.1438    0.7727    0.7074     H
  O804    0.7832    0.2795    0.8897     O
  H805    0.7305    0.2927    0.8964     H
  H806    0.8146    0.3122    0.9061     H
  O807    0.6802    0.5698    0.6910     O
  H808    0.6648    0.5227    0.6781     H
  H809    0.7273    0.5852    0.6781     H
 Cl810    0.6820    0.3708    0.0910    Cl
 Na811    0.5680    0.8708    0.2840    Na

